Version 4
SHEET 1 5945676 13421556
WIRE 624 -368 576 -368
WIRE 736 -368 688 -368
WIRE 1936 -272 1648 -272
WIRE 432 -256 384 -256
WIRE 576 -256 576 -368
WIRE 576 -256 512 -256
WIRE 608 -256 576 -256
WIRE 736 -256 736 -368
WIRE 736 -256 688 -256
WIRE 1744 -256 1376 -256
WIRE 1008 -240 768 -240
WIRE 1216 -240 1088 -240
WIRE 1744 -224 1744 -256
WIRE 1840 -224 1744 -224
WIRE 1648 -208 1648 -272
WIRE 384 -192 384 -256
WIRE 1376 -192 1376 -256
WIRE 1840 -192 1840 -224
WIRE 1376 -176 1376 -192
WIRE 1136 -160 1072 -160
WIRE 1136 -144 1136 -160
WIRE 1216 -112 1216 -240
WIRE 1280 -112 1216 -112
WIRE 1568 -112 1472 -112
WIRE 1744 -96 1744 -224
WIRE 576 -80 576 -256
WIRE 640 -80 576 -80
WIRE 1072 -80 1072 -160
WIRE 1648 -80 1648 -128
WIRE 1712 -80 1648 -80
WIRE 1872 -80 1856 -80
WIRE 1936 -80 1936 -272
WIRE 1936 -80 1872 -80
WIRE 2160 -80 1936 -80
WIRE 736 -64 736 -256
WIRE 736 -64 704 -64
WIRE 768 -64 768 -240
WIRE 768 -64 736 -64
WIRE 784 -64 768 -64
WIRE 912 -64 864 -64
WIRE 1040 -64 992 -64
WIRE 1856 -64 1856 -80
WIRE 1856 -64 1776 -64
WIRE 368 -48 -96 -48
WIRE 640 -48 448 -48
WIRE 1200 -48 1104 -48
WIRE 1568 -48 1568 -112
WIRE 1600 -48 1568 -48
WIRE 1712 -48 1680 -48
WIRE 2160 -48 2160 -80
WIRE 2448 -48 2160 -48
WIRE 1040 -32 1008 -32
WIRE 2176 -32 1984 -32
WIRE -96 -16 -96 -48
WIRE 1008 -16 1008 -32
WIRE 2176 -16 2176 -32
WIRE 1984 32 1984 -32
WIRE 1984 32 1920 32
WIRE 1072 48 1072 -16
WIRE 1744 64 1744 -32
WIRE 768 80 768 -64
WIRE 848 80 768 80
WIRE 1008 80 1008 64
WIRE 1008 80 928 80
WIRE 1568 96 1568 -48
WIRE 1648 96 1568 96
WIRE 2176 96 2176 64
WIRE 1568 112 1568 96
WIRE 1872 128 1872 -80
WIRE 2256 144 2240 144
WIRE 2400 144 2336 144
WIRE 64 160 64 128
WIRE 1648 160 1648 96
WIRE 1920 160 1920 32
WIRE 1920 160 1648 160
WIRE 1008 176 1008 80
WIRE 2400 176 2400 144
WIRE -96 192 -96 64
WIRE 2400 192 2400 176
WIRE 64 272 64 240
WIRE 672 272 672 -32
WIRE 672 272 64 272
WIRE 1008 272 1008 240
WIRE 1008 272 672 272
WIRE 1376 272 1376 64
WIRE 1376 272 1008 272
WIRE 1568 272 1568 176
WIRE 1568 272 1376 272
WIRE 1872 272 1872 208
WIRE 1872 272 1568 272
WIRE 2176 272 2176 192
WIRE 2176 272 1872 272
WIRE 2400 272 2400 256
WIRE 2400 272 2176 272
WIRE 64 336 64 272
FLAG -96 192 0
FLAG 64 336 0
FLAG 672 -96 V+
FLAG 64 128 V+
FLAG 384 -192 0
FLAG 2448 -48 OUT_PEAK_DETECT
FLAG 1744 64 0
FLAG 1840 -192 V+
FLAG 1072 48 V+
FLAG 1136 -144 0
SYMBOL voltage -96 -32 R0
WINDOW 123 24 124 Left 2
WINDOW 39 0 0 Left 0
WINDOW 3 -97 -89 Left 2
SYMATTR Value2 AC 0.5
SYMATTR Value PULSE(0 .04 0.00006 0 0.00 0.0000005 0.02 1)
SYMATTR InstName V1
SYMBOL res 704 -272 R90
WINDOW 0 0 56 VBottom 2
WINDOW 3 32 56 VTop 2
SYMATTR InstName R5
SYMATTR Value 10K
SYMBOL res 464 -64 R90
WINDOW 0 0 56 VBottom 2
WINDOW 3 32 56 VTop 2
SYMATTR InstName R4
SYMATTR Value 249
SYMBOL res 528 -272 R90
WINDOW 0 0 56 VBottom 2
WINDOW 3 32 56 VTop 2
SYMATTR InstName R3
SYMATTR Value 249
SYMBOL cap 688 -384 R90
WINDOW 0 0 32 VBottom 2
WINDOW 3 32 32 VTop 2
SYMATTR InstName C7
SYMATTR Value 10pF
SYMBOL voltage 64 144 R0
WINDOW 123 0 0 Left 0
WINDOW 39 0 0 Left 0
SYMATTR InstName V2
SYMATTR Value +5
SYMBOL OpAmps\\LT1807 672 -128 R0
SYMATTR InstName U3
SYMBOL voltage 2400 160 R0
WINDOW 123 24 124 Left 2
WINDOW 39 0 0 Left 0
WINDOW 3 -134 -112 Left 2
SYMATTR Value2 AC 0.5
SYMATTR Value PULSE(0 3 0.0006 0 0.00 0.05 0.02 1)
SYMATTR InstName V3
SYMBOL res 2352 128 R90
WINDOW 0 0 56 VBottom 2
WINDOW 3 32 56 VTop 2
SYMATTR InstName R10
SYMATTR Value 470
SYMBOL npn 2240 96 M0
SYMATTR InstName ESP32-EMPTCAP
SYMATTR Value 2N3904
SYMBOL res 832 96 R270
WINDOW 0 32 56 VTop 2
WINDOW 3 0 56 VBottom 2
SYMATTR InstName R6
SYMATTR Value 10k
SYMBOL res 2192 80 R180
WINDOW 0 36 76 Left 2
WINDOW 3 36 40 Left 2
SYMATTR InstName R9
SYMATTR Value 470
SYMBOL OpAmps\\AD8618 1744 -128 R0
SYMATTR InstName U5
SYMBOL res 1296 -64 R90
WINDOW 0 0 56 VBottom 2
WINDOW 3 32 56 VTop 2
SYMATTR InstName R1
SYMATTR Value 100K
SYMBOL res 1888 224 R180
WINDOW 0 36 76 Left 2
WINDOW 3 36 40 Left 2
SYMATTR InstName R2
SYMATTR Value 10k
SYMBOL res 880 -80 R90
WINDOW 0 0 56 VBottom 2
WINDOW 3 32 56 VTop 2
SYMATTR InstName R7
SYMATTR Value 10k
SYMBOL cap 1024 240 R180
WINDOW 0 24 56 Left 2
WINDOW 3 24 8 Left 2
SYMATTR InstName C1
SYMATTR Value 0.01nF
SYMBOL res 1008 -80 R90
WINDOW 0 0 56 VBottom 2
WINDOW 3 32 56 VTop 2
SYMATTR InstName R8
SYMATTR Value 82k
SYMBOL res 1024 80 R180
WINDOW 0 36 76 Left 2
WINDOW 3 36 40 Left 2
SYMATTR InstName R11
SYMATTR Value 100k
SYMBOL Comparators\\LTC6752 1072 16 M180
SYMATTR InstName U2
SYMBOL cap 1584 176 R180
WINDOW 0 24 56 Left 2
WINDOW 3 24 8 Left 2
SYMATTR InstName C3
SYMATTR Value 1nF
SYMBOL res 1696 -64 R90
WINDOW 0 0 56 VBottom 2
WINDOW 3 32 56 VTop 2
SYMATTR InstName R12
SYMATTR Value 82k
SYMBOL res 1664 -112 R180
WINDOW 0 36 76 Left 2
WINDOW 3 36 40 Left 2
SYMATTR InstName R13
SYMATTR Value 82k
SYMBOL res 1104 -256 R90
WINDOW 0 0 56 VBottom 2
WINDOW 3 32 56 VTop 2
SYMATTR InstName R14
SYMATTR Value 249
SYMBOL Switches\\ADG841 1376 -64 R0
SYMATTR InstName U4
TEXT -184 -224 Left 2 !.tran 0.0008
TEXT 1176 -432 Left 2 ;Peak Detecteur
TEXT 600 -440 Left 2 ;Amplificator
TEXT 2456 -168 Left 2 ;ESP-32
TEXT -176 -64 Left 2 ;SIPM
RECTANGLE Normal 2448 384 2016 -208 2
RECTANGLE Normal 0 272 -208 -80 2
RECTANGLE Normal 1360 384 944 -480 2
RECTANGLE Normal 800 384 320 -480 2
